LAMMPS (7 Dec 2015)
#----------- Initialize Simulation ------------ restart01
#processors	2 2 2
units		metal
boundary	p p p     ## periodic boundary condition  on x y z axis ##
atom_style atomic
#atom_modify map array sort 0 0.0

read_data	POSCAR_1x1x1.lammps
  triclinic box = (0 0 0) to (15.5574 13.4731 26.2136) with tilt (-7.7786 0 0)
  reading atoms ...
  319 atoms

#----------- Define Potential -----------------
pair_style meam
pair_coeff * * MgAlZn.library.meam Mg Al Zn MgAlZn.parameter.meam Mg Al Zn 	#1=Mg 2=Al 3=Zn	#atoms/mass

#----------- Neighbor List --------------------
neighbor 2.0 bin
neigh_modify delay 10 check yes

#--------------  Run a simulation (minimization) ---------------------------------------
minimize       1.0e-4   1.0e-6   100   1000          #結構優化的條件
  2 neighbor list requests
  update every 1 steps, delay 0 steps, check yes
Step Temp E_pair E_mol TotEng Press
0            0   -437.68467            0   -437.68467    4445.8441
Loop time of 0.0200924 on 28 procs for 12 steps with 319 atoms

Minimization stats:
  Stopping criterion = energy tolerance
  Energy initial, next-to-last, final =
  Force two-norm initial, final = 20.6919 0.749743
  Force max component initial, final = 3.13051 0.176441
  Final line search alpha, max atom move = 0.307495 0.0542547
  Iterations, force evaluations = 12 20

velocity all  create 600.0 4928459 #rot yes dist gaussian

#--------------  Run a simulation (Relaxation)  ----------------------------------------
fix  1  all  nvt   temp  600.0  600.0  100				#damping constant
#fix  2  all  npt   temp  393.0  393.0  50 iso 0.0 0.0 1000.0
fix  2  all deform 1 x final 0 15.5621 y final 0 13.4772 z final 0 26.1786 xy final -7.78095 units lattice
#fix  3  all  npt   temp  393.0  393.0  50 z 0.0 0.0 1000.0

#variable b equal 1
#fix 2 all efield  0.0  0.0  v_b
#compute pot all pe/atom

#----------- Output --------------------------
thermo	 500
timestep  0.001		#1.0 fs
thermo_style	custom step time temp ke pe etotal press pxx pyy pzz lx ly lz vol

dump 1 all custom 10000 dump.eq id type x y z
dump_modify 1 sort  id

run        1000000	#1000 ps
  2 neighbor list requests
  update every 1 steps, delay 10 steps, check yes
Step Time Temp KinEng PotEng TotEng Press Pxx Pyy Pzz Lx Ly Lz Volume
12            0          600    24.662836   -459.45762   -434.79478   -7701.8963   -14667.953   -10776.057    2338.3209      15.5574      13.4731      26.2136    5494.5385
Averages over the last 1001 of 2002 rows, steps 500500 to 1000012:
Temp KinEng PotEng TotEng Press Pxx Pyy Pzz Lx Ly Lz Volume
605.407 24.8851 -435.986 -411.101 9973.03 -2002.08 3864.76 28056.4 15.5609 13.4762 26.1873 5491.53
Loop time of 939.577 on 28 procs for 1000000 steps with 319 atoms

write_restart   POSCAR_1x1x1.rest

#unfix    1
#undump   1
