LAMMPS (7 Dec 2015)
#----------- Initialize Simulation ------------ restart01
#processors	2 2 2
units		metal
boundary	p p p     ## periodic boundary condition  on x y z axis ##
atom_style atomic
#atom_modify map array sort 0 0.0

read_data	POSCAR_1x1x1.lammps
  triclinic box = (0 0 0) to (15.31 13.2589 28.033) with tilt (-7.6549 0 0)
  reading atoms ...
  319 atoms

#----------- Define Potential -----------------
pair_style meam
pair_coeff * * MgAlZn.library.meam Mg Al Zn MgAlZn.parameter.meam Mg Al Zn 	#1=Mg 2=Al 3=Zn	#atoms/mass

#----------- Neighbor List --------------------
neighbor 2.0 bin
neigh_modify delay 10 check yes

#--------------  Run a simulation (minimization) ---------------------------------------
minimize       1.0e-4   1.0e-6   100   1000          #結構優化的條件
  2 neighbor list requests
  update every 1 steps, delay 0 steps, check yes
Step Temp E_pair E_mol TotEng Press
0            0   -432.20445            0   -432.20445   -7019.6097
Loop time of 0.0218319 on 28 procs for 14 steps with 319 atoms

Minimization stats:
  Stopping criterion = energy tolerance
  Energy initial, next-to-last, final =
  Force two-norm initial, final = 18.8805 0.748209
  Force max component initial, final = 2.37541 0.136473
  Final line search alpha, max atom move = 0.493115 0.0672968
  Iterations, force evaluations = 14 24

velocity all  create 600.0 4928459 #rot yes dist gaussian

#--------------  Run a simulation (Relaxation)  ----------------------------------------
fix  1  all  nvt   temp  600.0  600.0  100				#damping constant
#fix  2  all  npt   temp  393.0  393.0  50 iso 0.0 0.0 1000.0
fix  2  all deform 1 x final 0 15.3148 y final 0 13.263 z final 0 27.998 xy final -7.6573 units lattice
#fix  3  all  npt   temp  393.0  393.0  50 z 0.0 0.0 1000.0

#variable b equal 1
#fix 2 all efield  0.0  0.0  v_b
#compute pot all pe/atom

#----------- Output --------------------------
thermo	 500
timestep  0.001		#1.0 fs
thermo_style	custom step time temp ke pe etotal press pxx pyy pzz lx ly lz vol

dump 1 all custom 10000 dump.eq id type x y z
dump_modify 1 sort  id

run        1000000	#1000 ps
  2 neighbor list requests
  update every 1 steps, delay 10 steps, check yes
Step Time Temp KinEng PotEng TotEng Press Pxx Pyy Pzz Lx Ly Lz Volume
14            0          600    24.662836   -454.08858   -429.42574   -18841.172   -9064.4705   -8034.3765    -39424.67        15.31      13.2589       28.033     5690.524
Averages over the last 1001 of 2002 rows, steps 500500 to 1000014:
Temp KinEng PotEng TotEng Press Pxx Pyy Pzz Lx Ly Lz Volume
605.921 24.9062 -431.737 -406.831 -1991.29 9621.68 6786.75 -22382.3 15.3136 13.262 28.0067 5687.85
Loop time of 881.681 on 28 procs for 1000000 steps with 319 atoms

write_restart   POSCAR_1x1x1.rest

#unfix    1
#undump   1
