LAMMPS (7 Dec 2015)
#----------- Initialize Simulation ------------ restart01
#processors	2 2 2
units		metal
boundary	p p p     ## periodic boundary condition  on x y z axis ##
atom_style atomic
#atom_modify map array sort 0 0.0

read_data	POSCAR_1x1x1.lammps
  triclinic box = (0 0 0) to (14.88 12.8865 28.7324) with tilt (-7.44 0 0)
  reading atoms ...
  324 atoms

#----------- Define Potential -----------------
pair_style meam
pair_coeff * * MgAlZn.library.meam Mg Al Zn MgAlZn.parameter.meam Mg Al Zn 	#1=Mg 2=Al 3=Zn	#atoms/mass

#----------- Neighbor List --------------------
neighbor 2.0 bin
neigh_modify delay 10 check yes

#--------------  Run a simulation (minimization) ---------------------------------------
minimize       1.0e-4   1.0e-6   100   1000          #結構優化的條件
  2 neighbor list requests
  update every 1 steps, delay 0 steps, check yes
Step Temp E_pair E_mol TotEng Press
0            0   -448.81624            0   -448.81624    36783.023
Loop time of 0.0376347 on 8 procs for 4 steps with 324 atoms

Minimization stats:
  Stopping criterion = energy tolerance
  Energy initial, next-to-last, final =
  Force two-norm initial, final = 21.6076 0.485187
  Force max component initial, final = 1.66699 0.0432631
  Final line search alpha, max atom move = 0.611649 0.0264618
  Iterations, force evaluations = 4 8

velocity all  create 393.0 4928459 #rot yes dist gaussian

#--------------  Run a simulation (Relaxation)  ----------------------------------------
fix  1  all  nvt   temp  393.0  393.0  100				#damping constant
#fix  2  all  npt   temp  393.0  393.0  50 iso 0.0 0.0 1000.0
fix  2  all deform 1 x final 0 15.6906 y final 0 13.5884 z final 0 25.2339 xy final -7.8452 units lattice
#fix  3  all  npt   temp  393.0  393.0  50 z 0.0 0.0 1000.0

#variable b equal 1
#fix 2 all efield  0.0  0.0  v_b
#compute pot all pe/atom

#----------- Output --------------------------
thermo	 500
timestep  0.001		#1.0 fs
thermo_style	custom step time temp ke pe etotal press pxx pyy pzz lx ly lz vol

dump 1 all custom 10000 dump.eq id type x y z
dump_modify 1 sort  id

run        10000000	#10000 ps
  2 neighbor list requests
  update every 1 steps, delay 10 steps, check yes
Step Time Temp KinEng PotEng TotEng Press Pxx Pyy Pzz Lx Ly Lz Volume
4            0          393    16.408154   -453.20874   -436.80058    32855.405    97908.867    98189.719   -97532.372        14.88    12.886458     28.73238    5509.4482
Averages over the last 10001 of 20002 rows, steps 5000500 to 10000004:
Temp KinEng PotEng TotEng Press Pxx Pyy Pzz Lx Ly Lz Volume
389.647 16.2682 -470.343 -454.074 23568.5 36222.1 36196.4 -1712.93 15.488 13.4129 26.1083 5422.46
Loop time of 38270.5 on 8 procs for 10000000 steps with 324 atoms

write_restart   POSCAR_1x1x1.rest

#unfix    1
#undump   1
