LAMMPS (7 Dec 2015)
#----------- Initialize Simulation ------------ restart01
#processors	2 2 2
units		metal
boundary	p p p     ## periodic boundary condition  on x y z axis ##
atom_style atomic
#atom_modify map array sort 0 0.0

read_data	POSCAR_1x1x1.lammps
  triclinic box = (0 0 0) to (15.2149 13.1765 28.7324) with tilt (-7.60743 0 0)
  reading atoms ...
  324 atoms

#----------- Define Potential -----------------
pair_style meam
pair_coeff * * MgAlZn.library.meam Mg Al Zn MgAlZn.parameter.meam Mg Al Zn 	#1=Mg 2=Al 3=Zn	#atoms/mass

#----------- Neighbor List --------------------
neighbor 2.0 bin
neigh_modify delay 10 check yes

#--------------  Run a simulation (minimization) ---------------------------------------
minimize       1.0e-4   1.0e-6   100   1000          #結構優化的條件
  2 neighbor list requests
  update every 1 steps, delay 0 steps, check yes
Step Temp E_pair E_mol TotEng Press
0            0   -657.51429            0   -657.51429    19758.622
Loop time of 0.026779 on 28 procs for 14 steps with 324 atoms

Minimization stats:
  Stopping criterion = energy tolerance
  Energy initial, next-to-last, final =
  Force two-norm initial, final = 23.1939 1.46159
  Force max component initial, final = 4.14537 0.611682
  Final line search alpha, max atom move = 0.154827 0.0947046
  Iterations, force evaluations = 14 27

velocity all  create 393.0 4928459 #rot yes dist gaussian

#--------------  Run a simulation (Relaxation)  ----------------------------------------
fix  1  all  nvt   temp  393.0  393.0  100				#damping constant
#fix  2  all  npt   temp  393.0  393.0  50 iso 0.0 0.0 1000.0
#fix  2  all deform 1 x final 0 15.6906 y final 0 13.5884 z final 0 25.2339 xy final -7.8452 units lattice
#fix  3  all  npt   temp  393.0  393.0  50 z 0.0 0.0 1000.0

#variable b equal 1
#fix 2 all efield  0.0  0.0  v_b
#compute pot all pe/atom

#----------- Output --------------------------
thermo	 500
timestep  0.001		#1.0 fs
thermo_style	custom step time temp ke pe etotal press pxx pyy pzz lx ly lz vol

dump 1 all custom 10000 dump.eq id type x y z
dump_modify 1 sort  id

run        1000000	#10000	 ps
  2 neighbor list requests
  update every 1 steps, delay 10 steps, check yes
Step Time Temp KinEng PotEng TotEng Press Pxx Pyy Pzz Lx Ly Lz Volume
14            0          393    16.408154   -672.73914   -656.33099    21304.841    41707.789    41677.294   -19470.562      15.2149      13.1765      28.7324    5760.2466
Averages over the last 1001 of 2002 rows, steps 500500 to 1000014:
Temp KinEng PotEng TotEng Press Pxx Pyy Pzz Lx Ly Lz Volume
395.674 16.5198 -657.952 -641.433 23144.8 46755.8 49856.4 -27177.9 15.2149 13.1765 28.7324 5760.25
Loop time of 950.047 on 28 procs for 1000000 steps with 324 atoms

write_restart   POSCAR_1x1x1.rest

#unfix    1
#undump   1
